LTspice 24.0.12 for Windows
Circuit: * C:\Users\zanea\Documents\GitHub\GeoSense\LTspice Files\Draft1.asc
Start Time: Sun Mar  2 19:02:50 2025
solver = Normal
Maximum thread count: 8
tnom = 27
temp = 27
method = modified trap
Direct Newton iteration for .op point succeeded.
Total elapsed time: 0.059 seconds.

